<?xml version="1.0" encoding="UTF-8"?>

<!-- generated on 2024-05-28 11:11:06 by Eclipse SUMO netedit Version 1.20.0
<configuration xmlns:xsi="http://www.w3.org/2001/XMLSchema-instance" xsi:noNamespaceSchemaLocation="http://sumo.dlr.de/xsd/neteditConfiguration.xsd">

    <input>
        <sumo-net-file value="C:\大四\112-2\car\CarFinal\intersection.net.xml"/>
    </input>

    <output>
        <output-file value="C:\大四\112-2\car\CarFinal\intersection.net.xml"/>
    </output>

    <processing>
        <offset.disable-normalization value="true"/>
    </processing>

    <junctions>
        <no-turnarounds value="true"/>
    </junctions>

    <netedit>
        <new-network value="false"/>
    </netedit>

</configuration>
-->

<net version="1.20" junctionCornerDetail="5" limitTurnSpeed="5.50" xmlns:xsi="http://www.w3.org/2001/XMLSchema-instance" xsi:noNamespaceSchemaLocation="http://sumo.dlr.de/xsd/net_file.xsd">

    <location netOffset="0.00,0.00" convBoundary="-300.00,-300.00,300.00,300.00" origBoundary="-10000000000.00,-10000000000.00,10000000000.00,10000000000.00" projParameter="!"/>
    
    <edge id=":J5_0" function="internal">
        <lane id=":J5_0_0" index="0" speed="6.67" length="9.27" shape="66.57,49.19 64.06,49.63 62.27,50.75 61.19,52.56 60.82,55.04"/>
    </edge>
    <edge id=":J5_1" function="internal">
        <lane id=":J5_1_0" index="0" speed="13.89" length="14.60" shape="66.57,49.19 51.98,49.40"/>
    </edge>
    <edge id=":J5_2" function="internal">
        <lane id=":J5_2_0" index="0" speed="7.97" length="14.27" shape="66.57,49.19 62.67,48.77 59.87,47.20 58.16,44.47 57.55,40.60"/>
    </edge>
    <edge id=":J5_3" function="internal">
        <lane id=":J5_3_0" index="0" speed="6.46" length="9.04" shape="60.74,40.55 61.13,43.00 62.21,44.73 63.99,45.72 66.46,45.99"/>
    </edge>
    <edge id=":J5_4" function="internal">
        <lane id=":J5_4_0" index="0" speed="13.89" length="14.49" shape="60.74,40.55 60.82,55.04"/>
    </edge>
    <edge id=":J5_5" function="internal">
        <lane id=":J5_5_0" index="0" speed="7.96" length="4.15" shape="60.74,40.55 60.25,44.44 60.13,44.64"/>
    </edge>
    <edge id=":J5_12" function="internal">
        <lane id=":J5_12_0" index="0" speed="7.96" length="10.12" shape="60.13,44.64 58.62,47.21 55.86,48.87 51.98,49.40"/>
    </edge>
    <edge id=":J5_6" function="internal">
        <lane id=":J5_6_0" index="0" speed="6.46" length="9.03" shape="51.99,46.20 54.45,45.86 56.20,44.82 57.23,43.06 57.55,40.60"/>
    </edge>
    <edge id=":J5_7" function="internal">
        <lane id=":J5_7_0" index="0" speed="13.89" length="14.46" shape="51.99,46.20 66.46,45.99"/>
    </edge>
    <edge id=":J5_8" function="internal">
        <lane id=":J5_8_0" index="0" speed="8.02" length="14.24" shape="51.99,46.20 55.87,46.77 58.63,48.44 60.29,51.19 60.82,55.04"/>
    </edge>
    <edge id=":J5_9" function="internal">
        <lane id=":J5_9_0" index="0" speed="6.53" length="9.09" shape="57.62,55.03 57.28,52.58 56.22,50.82 54.46,49.76 51.98,49.40"/>
    </edge>
    <edge id=":J5_10" function="internal">
        <lane id=":J5_10_0" index="0" speed="13.89" length="14.43" shape="57.62,55.03 57.55,40.60"/>
    </edge>
    <edge id=":J5_11" function="internal">
        <lane id=":J5_11_0" index="0" speed="8.14" length="3.99" shape="57.62,55.03 58.19,51.19 58.25,51.09"/>
    </edge>
    <edge id=":J5_13" function="internal">
        <lane id=":J5_13_0" index="0" speed="8.14" length="10.30" shape="58.25,51.09 59.85,48.40 62.61,46.67 66.46,45.99"/>
    </edge>

    <edge id="-E3" from="J5" to="J4" priority="-1">
        <lane id="-E3_0" index="0" speed="13.89" length="39.74" shape="60.82,55.04 60.67,94.78"/>
    </edge>
    <edge id="-E4" from="J5" to="J6" priority="-1">
        <lane id="-E4_0" index="0" speed="13.89" length="51.86" shape="51.98,49.40 0.12,49.08"/>
    </edge>
    <edge id="-E5" from="J5" to="J7" priority="-1">
        <lane id="-E5_0" index="0" speed="13.89" length="53.18" shape="66.46,45.99 119.61,44.14"/>
    </edge>
    <edge id="-E6" from="J5" to="J8" priority="-1">
        <lane id="-E6_0" index="0" speed="13.89" length="42.05" shape="57.55,40.60 56.92,-1.45"/>
    </edge>
    <edge id="E3" from="J4" to="J5" priority="-1">
        <lane id="E3_0" index="0" speed="13.89" length="39.74" shape="57.47,94.77 57.62,55.03"/>
    </edge>
    <edge id="E4" from="J6" to="J5" priority="-1">
        <lane id="E4_0" index="0" speed="13.89" length="51.86" shape="0.14,45.88 51.99,46.20"/>
    </edge>
    <edge id="E5" from="J7" to="J5" priority="-1">
        <lane id="E5_0" index="0" speed="13.89" length="53.18" shape="119.72,47.33 66.57,49.19"/>
    </edge>
    <edge id="E6" from="J8" to="J5" priority="-1">
        <lane id="E6_0" index="0" speed="13.89" length="42.05" shape="60.12,-1.50 60.74,40.55"/>
    </edge>

    <junction id="J4" type="dead_end" x="59.07" y="94.78" incLanes="-E3_0" intLanes="" shape="59.07,94.78 62.27,94.79 59.07,94.78"/>
    <junction id="J5" type="priority" x="59.25" y="47.84" incLanes="E5_0 E6_0 E4_0 E3_0" intLanes=":J5_0_0 :J5_1_0 :J5_2_0 :J5_3_0 :J5_4_0 :J5_12_0 :J5_6_0 :J5_7_0 :J5_8_0 :J5_9_0 :J5_10_0 :J5_13_0" shape="66.62,50.79 66.40,44.39 64.17,44.02 63.39,43.49 62.82,42.74 62.47,41.75 62.34,40.53 55.95,40.62 55.53,42.84 54.99,43.62 54.22,44.17 53.23,44.49 52.00,44.60 51.97,51.00 54.23,51.46 55.02,52.02 55.58,52.80 55.92,53.80 56.02,55.02 62.42,55.05 62.90,52.75 63.48,51.93 64.30,51.33 65.35,50.95">
        <request index="0"  response="000000010000" foes="000100010000" cont="0"/>
        <request index="1"  response="111000110000" foes="111100110000" cont="0"/>
        <request index="2"  response="110011110000" foes="110111110000" cont="0"/>
        <request index="3"  response="000000000000" foes="100010000000" cont="0"/>
        <request index="4"  response="000000000000" foes="100110000111" cont="0"/>
        <request index="5"  response="011000000000" foes="111110000110" cont="1"/>
        <request index="6"  response="010000000000" foes="010000000100" cont="0"/>
        <request index="7"  response="110000111000" foes="110000111100" cont="0"/>
        <request index="8"  response="110000110111" foes="110000110111" cont="0"/>
        <request index="9"  response="000000000000" foes="000000100010" cont="0"/>
        <request index="10" response="000000000000" foes="000111100110" cont="0"/>
        <request index="11" response="000000111000" foes="000110111110" cont="1"/>
    </junction>
    <junction id="J6" type="dead_end" x="0.13" y="47.48" incLanes="-E4_0" intLanes="" shape="0.13,47.48 0.11,50.68 0.13,47.48"/>
    <junction id="J7" type="dead_end" x="119.66" y="45.73" incLanes="-E5_0" intLanes="" shape="119.66,45.73 119.55,42.54 119.66,45.73"/>
    <junction id="J8" type="dead_end" x="58.52" y="-1.47" incLanes="-E6_0" intLanes="" shape="58.52,-1.47 55.32,-1.43 58.52,-1.47"/>

    <junction id=":J5_12_0" type="internal" x="60.13" y="44.64" incLanes=":J5_5_0 E3_0" intLanes=":J5_1_0 :J5_2_0 :J5_7_0 :J5_8_0 :J5_9_0 :J5_10_0"/>
    <junction id=":J5_13_0" type="internal" x="58.25" y="51.09" incLanes=":J5_11_0 E6_0" intLanes=":J5_1_0 :J5_2_0 :J5_3_0 :J5_4_0 :J5_7_0 :J5_8_0"/>

    <connection from="E3" to="-E4" fromLane="0" toLane="0" via=":J5_9_0" dir="r" state="M"/>
    <connection from="E3" to="-E6" fromLane="0" toLane="0" via=":J5_10_0" dir="s" state="M"/>
    <connection from="E3" to="-E5" fromLane="0" toLane="0" via=":J5_11_0" dir="l" state="m"/>
    <connection from="E4" to="-E6" fromLane="0" toLane="0" via=":J5_6_0" dir="r" state="m"/>
    <connection from="E4" to="-E5" fromLane="0" toLane="0" via=":J5_7_0" dir="s" state="m"/>
    <connection from="E4" to="-E3" fromLane="0" toLane="0" via=":J5_8_0" dir="l" state="m"/>
    <connection from="E5" to="-E3" fromLane="0" toLane="0" via=":J5_0_0" dir="r" state="m"/>
    <connection from="E5" to="-E4" fromLane="0" toLane="0" via=":J5_1_0" dir="s" state="m"/>
    <connection from="E5" to="-E6" fromLane="0" toLane="0" via=":J5_2_0" dir="l" state="m"/>
    <connection from="E6" to="-E5" fromLane="0" toLane="0" via=":J5_3_0" dir="r" state="M"/>
    <connection from="E6" to="-E3" fromLane="0" toLane="0" via=":J5_4_0" dir="s" state="M"/>
    <connection from="E6" to="-E4" fromLane="0" toLane="0" via=":J5_5_0" dir="l" state="m"/>

    <connection from=":J5_0" to="-E3" fromLane="0" toLane="0" dir="r" state="M"/>
    <connection from=":J5_1" to="-E4" fromLane="0" toLane="0" dir="s" state="M"/>
    <connection from=":J5_2" to="-E6" fromLane="0" toLane="0" dir="l" state="M"/>
    <connection from=":J5_3" to="-E5" fromLane="0" toLane="0" dir="r" state="M"/>
    <connection from=":J5_4" to="-E3" fromLane="0" toLane="0" dir="s" state="M"/>
    <connection from=":J5_5" to="-E4" fromLane="0" toLane="0" via=":J5_12_0" dir="l" state="m"/>
    <connection from=":J5_12" to="-E4" fromLane="0" toLane="0" dir="l" state="M"/>
    <connection from=":J5_6" to="-E6" fromLane="0" toLane="0" dir="r" state="M"/>
    <connection from=":J5_7" to="-E5" fromLane="0" toLane="0" dir="s" state="M"/>
    <connection from=":J5_8" to="-E3" fromLane="0" toLane="0" dir="l" state="M"/>
    <connection from=":J5_9" to="-E4" fromLane="0" toLane="0" dir="r" state="M"/>
    <connection from=":J5_10" to="-E6" fromLane="0" toLane="0" dir="s" state="M"/>
    <connection from=":J5_11" to="-E5" fromLane="0" toLane="0" via=":J5_13_0" dir="l" state="m"/>
    <connection from=":J5_13" to="-E5" fromLane="0" toLane="0" dir="l" state="M"/>

</net>
