<configuration>
    <input>
        <net-file value="tmp.net.xml"/>
        <route-files value="output.xml"/>
    </input>
    <output>
        <full-output value="fulloutput.xml"/>
    </output>
    <time>
        <begin value="0"/>
        <end value="3000"/>
    </time>
</configuration>