<?xml version="1.0" encoding="UTF-8"?>

<routes>

    <vType id="CAV" vClass="passenger" color="1,1,0" maxSpeed="16"/>
    <vType id="HDV" vClass="passenger" color="0,0,0" maxSpeed="16"/>
    <!-- CAV -->
    <flow id="CNE" type="CAV" beg="0" end="3000" probability="0.7" from="oN" to="iE"/>
    <flow id="CNS" type="CAV" beg="0" end="3000" probability="0.7" from="oN" to="iS"/>
    <flow id="CNW" type="CAV" beg="0" end="3000" probability="0.7" from="oN" to="iW"/>

    <flow id="CEN" type="CAV" beg="0" end="3000" probability="0.7" from="oE" to="iN"/>
    <flow id="CES" type="CAV" beg="0" end="3000" probability="0.7" from="oE" to="iS"/>
    <flow id="CEW" type="CAV" beg="0" end="3000" probability="0.7" from="oE" to="iW"/>
    
    <flow id="CSN" type="CAV" beg="0" end="3000" probability="0.7" from="oS" to="iN"/>
    <flow id="CSE" type="CAV" beg="0" end="3000" probability="0.7" from="oS" to="iE"/>
    <flow id="CSW" type="CAV" beg="0" end="3000" probability="0.7" from="oS" to="iW"/>

    <flow id="CWN" type="CAV" beg="0" end="3000" probability="0.7" from="oW" to="iN"/>
    <flow id="CWE" type="CAV" beg="0" end="3000" probability="0.7" from="oW" to="iE"/>
    <flow id="CWS" type="CAV" beg="0" end="3000" probability="0.7" from="oW" to="iW"/>

    <!-- HDV -->
    <flow id="HNE" type="HDV" beg="0" end="3000" probability="0.3" from="oN" to="iE"/>
    <flow id="HNS" type="HDV" beg="0" end="3000" probability="0.3" from="oN" to="iS"/>
    <flow id="HNW" type="HDV" beg="0" end="3000" probability="0.3" from="oN" to="iW"/>

    <flow id="HEN" type="HDV" beg="0" end="3000" probability="0.3" from="oE" to="iN"/>
    <flow id="HES" type="HDV" beg="0" end="3000" probability="0.3" from="oE" to="iS"/>
    <flow id="HEW" type="HDV" beg="0" end="3000" probability="0.3" from="oE" to="iW"/>
    
    <flow id="HSN" type="HDV" beg="0" end="3000" probability="0.3" from="oS" to="iN"/>
    <flow id="HSE" type="HDV" beg="0" end="3000" probability="0.3" from="oS" to="iE"/>
    <flow id="HSW" type="HDV" beg="0" end="3000" probability="0.3" from="oS" to="iW"/>

    <flow id="HWN" type="HDV" beg="0" end="3000" probability="0.3" from="oW" to="iN"/>
    <flow id="HWE" type="HDV" beg="0" end="3000" probability="0.3" from="oW" to="iE"/>
    <flow id="HWS" type="HDV" beg="0" end="3000" probability="0.3" from="oW" to="iW"/>

    <!-- <sink edges=""> -->
</routes>