<?xml version="1.0" encoding="UTF-8"?>

<!-- generated on 2024-05-31 22:29:27 by Eclipse SUMO jtrrouter Version 1.20.0
<configuration xmlns:xsi="http://www.w3.org/2001/XMLSchema-instance" xsi:noNamespaceSchemaLocation="http://sumo.dlr.de/xsd/jtrrouterConfiguration.xsd">

    <input>
        <net-file value="data/intersection.net.xml"/>
        <route-files value="data/intersection.tmp.rou.xml"/>
        <turn-ratio-files value="data/intersection.turns.xml"/>
    </input>

    <output>
        <output-file value="intersection.rou.xml"/>
    </output>

</configuration>
-->

<routes xmlns:xsi="http://www.w3.org/2001/XMLSchema-instance" xsi:noNamespaceSchemaLocation="http://sumo.dlr.de/xsd/routes_file.xsd">
    <vType id="CAV" minGap="2.50" maxSpeed="16.00" vClass="passenger" color="white" carFollowModel="Krauss" accel="3" decel="4.5"/>
    <vehicle id="CE.0" type="CAV" depart="0.00">
        <route edges="iE oN"/>
    </vehicle>
    <vehicle id="CN.0" type="CAV" depart="0.00">
        <route edges="iN oS"/>
    </vehicle>
    <vehicle id="CS.0" type="CAV" depart="0.00">
        <route edges="iS oE"/>
    </vehicle>
    <vehicle id="CW.0" type="CAV" depart="0.00">
        <route edges="iW oN"/>
    </vehicle>
    <vType id="HDV" minGap="2.50" maxSpeed="16.00" vClass="passenger" color="red" carFollowModel="Krauss" accel="3" decel="4.5" sigma="0.5"/>
    <vehicle id="HE.0" type="HDV" depart="0.00">
        <route edges="iE oW"/>
    </vehicle>
    <vehicle id="HN.0" type="HDV" depart="0.00">
        <route edges="iN oW"/>
    </vehicle>
    <vehicle id="HS.0" type="HDV" depart="0.00">
        <route edges="iS oW"/>
    </vehicle>
    <vehicle id="HW.0" type="HDV" depart="0.00">
        <route edges="iW oN"/>
    </vehicle>
    <vehicle id="CE.1" type="CAV" depart="0.23">
        <route edges="iE oS"/>
    </vehicle>
    <vehicle id="HN.1" type="HDV" depart="0.59">
        <route edges="iN oE"/>
    </vehicle>
    <vehicle id="CW.1" type="CAV" depart="1.06">
        <route edges="iW oE"/>
    </vehicle>
    <vehicle id="HS.1" type="HDV" depart="1.21">
        <route edges="iS oE"/>
    </vehicle>
    <vehicle id="CS.1" type="CAV" depart="1.42">
        <route edges="iS oW"/>
    </vehicle>
    <vehicle id="HS.2" type="HDV" depart="1.48">
        <route edges="iS oE"/>
    </vehicle>
    <vehicle id="HN.2" type="HDV" depart="3.39">
        <route edges="iN oW"/>
    </vehicle>
    <vehicle id="HS.3" type="HDV" depart="3.75">
        <route edges="iS oE"/>
    </vehicle>
    <vehicle id="CN.1" type="CAV" depart="6.18">
        <route edges="iN oW"/>
    </vehicle>
    <vehicle id="HE.1" type="HDV" depart="6.27">
        <route edges="iE oN"/>
    </vehicle>
    <vehicle id="CN.2" type="CAV" depart="16.40">
        <route edges="iN oE"/>
    </vehicle>
    <vehicle id="CN.3" type="CAV" depart="17.19">
        <route edges="iN oE"/>
    </vehicle>
</routes>
