<?xml version="1.0" encoding="UTF-8"?>

<!-- generated on 2024-05-31 22:33:12 by Eclipse SUMO netconvert Version 1.20.0
<configuration xmlns:xsi="http://www.w3.org/2001/XMLSchema-instance" xsi:noNamespaceSchemaLocation="http://sumo.dlr.de/xsd/netconvertConfiguration.xsd">

    <input>
        <node-files value="data/supplement/intersection.nod.xml"/>
        <edge-files value="data/supplement/intersection.edg.xml"/>
        <connection-files value="data/supplement/intersection.con.xml"/>
    </input>

    <output>
        <output-file value="data/intersection.net.xml"/>
    </output>

</configuration>
-->

<net version="1.20" junctionCornerDetail="5" limitTurnSpeed="5.50" xmlns:xsi="http://www.w3.org/2001/XMLSchema-instance" xsi:noNamespaceSchemaLocation="http://sumo.dlr.de/xsd/net_file.xsd">

    <location netOffset="600.00,600.00" convBoundary="0.00,0.00,1200.00,1200.00" origBoundary="-600.00,-600.00,600.00,600.00" projParameter="!"/>

    <edge id=":E_0" function="internal">
        <lane id=":E_0_0" index="0" speed="3.65" length="4.67" shape="1200.00,598.40 1201.20,599.20 1201.60,600.00 1201.20,600.80 1200.00,601.60"/>
    </edge>
    <edge id=":N_0" function="internal">
        <lane id=":N_0_0" index="0" speed="3.65" length="4.67" shape="601.60,1200.00 600.80,1201.20 600.00,1201.60 599.20,1201.20 598.40,1200.00"/>
    </edge>
    <edge id=":S_0" function="internal">
        <lane id=":S_0_0" index="0" speed="3.65" length="4.67" shape="598.40,0.00 599.20,-1.20 600.00,-1.60 600.80,-1.20 601.60,0.00"/>
    </edge>
    <edge id=":W_0" function="internal">
        <lane id=":W_0_0" index="0" speed="3.65" length="4.67" shape="0.00,601.60 -1.20,600.80 -1.60,600.00 -1.20,599.20 0.00,598.40"/>
    </edge>
    <edge id=":intersection_0" function="internal">
        <lane id=":intersection_0_0" index="0" speed="6.51" length="9.03" shape="598.40,607.20 598.05,604.75 597.00,603.00 595.25,601.95 592.80,601.60"/>
    </edge>
    <edge id=":intersection_1" function="internal">
        <lane id=":intersection_1_0" index="0" speed="16.00" length="14.40" shape="598.40,607.20 598.40,592.80"/>
    </edge>
    <edge id=":intersection_2" function="internal">
        <lane id=":intersection_2_0" index="0" speed="8.00" length="14.19" shape="598.40,607.20 598.95,603.35 600.60,600.60 603.35,598.95 607.20,598.40"/>
    </edge>
    <edge id=":intersection_3" function="internal">
        <lane id=":intersection_3_0" index="0" speed="6.51" length="9.03" shape="607.20,601.60 604.75,601.95 603.00,603.00 601.95,604.75 601.60,607.20"/>
    </edge>
    <edge id=":intersection_4" function="internal">
        <lane id=":intersection_4_0" index="0" speed="16.00" length="14.40" shape="607.20,601.60 592.80,601.60"/>
    </edge>
    <edge id=":intersection_5" function="internal">
        <lane id=":intersection_5_0" index="0" speed="8.00" length="14.19" shape="607.20,601.60 603.35,601.05 600.60,599.40 598.95,596.65 598.40,592.80"/>
    </edge>
    <edge id=":intersection_6" function="internal">
        <lane id=":intersection_6_0" index="0" speed="6.51" length="9.03" shape="601.60,592.80 601.95,595.25 603.00,597.00 604.75,598.05 607.20,598.40"/>
    </edge>
    <edge id=":intersection_7" function="internal">
        <lane id=":intersection_7_0" index="0" speed="16.00" length="14.40" shape="601.60,592.80 601.60,607.20"/>
    </edge>
    <edge id=":intersection_8" function="internal">
        <lane id=":intersection_8_0" index="0" speed="8.00" length="14.19" shape="601.60,592.80 601.05,596.65 599.40,599.40 596.65,601.05 592.80,601.60"/>
    </edge>
    <edge id=":intersection_9" function="internal">
        <lane id=":intersection_9_0" index="0" speed="6.51" length="9.03" shape="592.80,598.40 595.25,598.05 597.00,597.00 598.05,595.25 598.40,592.80"/>
    </edge>
    <edge id=":intersection_10" function="internal">
        <lane id=":intersection_10_0" index="0" speed="16.00" length="14.40" shape="592.80,598.40 607.20,598.40"/>
    </edge>
    <edge id=":intersection_11" function="internal">
        <lane id=":intersection_11_0" index="0" speed="8.00" length="14.19" shape="592.80,598.40 596.65,598.95 599.40,600.60 601.05,603.35 601.60,607.20"/>
    </edge>

    <edge id="iE" from="E" to="intersection" priority="-1">
        <lane id="iE_0" index="0" speed="16.00" length="592.80" shape="1200.00,601.60 607.20,601.60"/>
    </edge>
    <edge id="iN" from="N" to="intersection" priority="-1">
        <lane id="iN_0" index="0" speed="16.00" length="592.80" shape="598.40,1200.00 598.40,607.20"/>
    </edge>
    <edge id="iS" from="S" to="intersection" priority="-1">
        <lane id="iS_0" index="0" speed="16.00" length="592.80" shape="601.60,0.00 601.60,592.80"/>
    </edge>
    <edge id="iW" from="W" to="intersection" priority="-1">
        <lane id="iW_0" index="0" speed="16.00" length="592.80" shape="0.00,598.40 592.80,598.40"/>
    </edge>
    <edge id="oE" from="intersection" to="E" priority="-1">
        <lane id="oE_0" index="0" speed="16.00" length="592.80" shape="607.20,598.40 1200.00,598.40"/>
    </edge>
    <edge id="oN" from="intersection" to="N" priority="-1">
        <lane id="oN_0" index="0" speed="16.00" length="592.80" shape="601.60,607.20 601.60,1200.00"/>
    </edge>
    <edge id="oS" from="intersection" to="S" priority="-1">
        <lane id="oS_0" index="0" speed="16.00" length="592.80" shape="598.40,592.80 598.40,0.00"/>
    </edge>
    <edge id="oW" from="intersection" to="W" priority="-1">
        <lane id="oW_0" index="0" speed="16.00" length="592.80" shape="592.80,601.60 0.00,601.60"/>
    </edge>

    <junction id="E" type="priority" x="1200.00" y="600.00" incLanes="oE_0" intLanes=":E_0_0" shape="1200.00,600.00 1200.00,596.80 1200.00,600.00">
        <request index="0" response="0" foes="0" cont="0"/>
    </junction>
    <junction id="N" type="priority" x="600.00" y="1200.00" incLanes="oN_0" intLanes=":N_0_0" shape="600.00,1200.00 603.20,1200.00 600.00,1200.00">
        <request index="0" response="0" foes="0" cont="0"/>
    </junction>
    <junction id="S" type="priority" x="600.00" y="0.00" incLanes="oS_0" intLanes=":S_0_0" shape="600.00,0.00 596.80,0.00 600.00,0.00">
        <request index="0" response="0" foes="0" cont="0"/>
    </junction>
    <junction id="W" type="priority" x="0.00" y="600.00" incLanes="oW_0" intLanes=":W_0_0" shape="0.00,600.00 0.00,603.20 0.00,600.00">
        <request index="0" response="0" foes="0" cont="0"/>
    </junction>
    <junction id="intersection" type="priority" x="600.00" y="600.00" incLanes="iN_0 iE_0 iS_0 iW_0" intLanes=":intersection_0_0 :intersection_1_0 :intersection_2_0 :intersection_3_0 :intersection_4_0 :intersection_5_0 :intersection_6_0 :intersection_7_0 :intersection_8_0 :intersection_9_0 :intersection_10_0 :intersection_11_0" shape="596.80,607.20 603.20,607.20 603.64,604.98 604.20,604.20 604.98,603.64 605.98,603.31 607.20,603.20 607.20,596.80 604.98,596.36 604.20,595.80 603.64,595.02 603.31,594.02 603.20,592.80 596.80,592.80 596.36,595.02 595.80,595.80 595.02,596.36 594.02,596.69 592.80,596.80 592.80,603.20 595.02,603.64 595.80,604.20 596.36,604.98 596.69,605.98">
        <request index="0"  response="000000000000" foes="000100010000" cont="0"/>
        <request index="1"  response="000000000000" foes="111100110000" cont="0"/>
        <request index="2"  response="000000000000" foes="110111110000" cont="0"/>
        <request index="3"  response="000000000000" foes="100010000000" cont="0"/>
        <request index="4"  response="000000000000" foes="100110000111" cont="0"/>
        <request index="5"  response="000000000000" foes="111110000110" cont="0"/>
        <request index="6"  response="000000000000" foes="010000000100" cont="0"/>
        <request index="7"  response="000000000000" foes="110000111100" cont="0"/>
        <request index="8"  response="000000000000" foes="110000110111" cont="0"/>
        <request index="9"  response="000000000000" foes="000000100010" cont="0"/>
        <request index="10" response="000000000000" foes="000111100110" cont="0"/>
        <request index="11" response="000000000000" foes="000110111110" cont="0"/>
    </junction>

    <connection from="iE" to="oN" fromLane="0" toLane="0" pass="1" contPos="0.00" via=":intersection_3_0" dir="r" state="M"/>
    <connection from="iE" to="oW" fromLane="0" toLane="0" pass="1" contPos="0.00" via=":intersection_4_0" dir="s" state="M"/>
    <connection from="iE" to="oS" fromLane="0" toLane="0" pass="1" contPos="0.00" via=":intersection_5_0" dir="l" state="M"/>
    <connection from="iN" to="oW" fromLane="0" toLane="0" pass="1" contPos="0.00" via=":intersection_0_0" dir="r" state="M"/>
    <connection from="iN" to="oS" fromLane="0" toLane="0" pass="1" contPos="0.00" via=":intersection_1_0" dir="s" state="M"/>
    <connection from="iN" to="oE" fromLane="0" toLane="0" pass="1" contPos="0.00" via=":intersection_2_0" dir="l" state="M"/>
    <connection from="iS" to="oE" fromLane="0" toLane="0" pass="1" contPos="0.00" via=":intersection_6_0" dir="r" state="M"/>
    <connection from="iS" to="oN" fromLane="0" toLane="0" pass="1" contPos="0.00" via=":intersection_7_0" dir="s" state="M"/>
    <connection from="iS" to="oW" fromLane="0" toLane="0" pass="1" contPos="0.00" via=":intersection_8_0" dir="l" state="M"/>
    <connection from="iW" to="oS" fromLane="0" toLane="0" pass="1" contPos="0.00" via=":intersection_9_0" dir="r" state="M"/>
    <connection from="iW" to="oE" fromLane="0" toLane="0" pass="1" contPos="0.00" via=":intersection_10_0" dir="s" state="M"/>
    <connection from="iW" to="oN" fromLane="0" toLane="0" pass="1" contPos="0.00" via=":intersection_11_0" dir="l" state="M"/>
    <connection from="oE" to="iE" fromLane="0" toLane="0" via=":E_0_0" dir="t" state="M"/>
    <connection from="oN" to="iN" fromLane="0" toLane="0" via=":N_0_0" dir="t" state="M"/>
    <connection from="oS" to="iS" fromLane="0" toLane="0" via=":S_0_0" dir="t" state="M"/>
    <connection from="oW" to="iW" fromLane="0" toLane="0" via=":W_0_0" dir="t" state="M"/>

    <connection from=":E_0" to="iE" fromLane="0" toLane="0" dir="t" state="M"/>
    <connection from=":N_0" to="iN" fromLane="0" toLane="0" dir="t" state="M"/>
    <connection from=":S_0" to="iS" fromLane="0" toLane="0" dir="t" state="M"/>
    <connection from=":W_0" to="iW" fromLane="0" toLane="0" dir="t" state="M"/>
    <connection from=":intersection_0" to="oW" fromLane="0" toLane="0" dir="r" state="M"/>
    <connection from=":intersection_1" to="oS" fromLane="0" toLane="0" dir="s" state="M"/>
    <connection from=":intersection_2" to="oE" fromLane="0" toLane="0" dir="l" state="M"/>
    <connection from=":intersection_3" to="oN" fromLane="0" toLane="0" dir="r" state="M"/>
    <connection from=":intersection_4" to="oW" fromLane="0" toLane="0" dir="s" state="M"/>
    <connection from=":intersection_5" to="oS" fromLane="0" toLane="0" dir="l" state="M"/>
    <connection from=":intersection_6" to="oE" fromLane="0" toLane="0" dir="r" state="M"/>
    <connection from=":intersection_7" to="oN" fromLane="0" toLane="0" dir="s" state="M"/>
    <connection from=":intersection_8" to="oW" fromLane="0" toLane="0" dir="l" state="M"/>
    <connection from=":intersection_9" to="oS" fromLane="0" toLane="0" dir="r" state="M"/>
    <connection from=":intersection_10" to="oE" fromLane="0" toLane="0" dir="s" state="M"/>
    <connection from=":intersection_11" to="oN" fromLane="0" toLane="0" dir="l" state="M"/>

</net>
